40

C                0.8284609400928508           -0.7590203651810919           -1.4683780794477024
C                0.7686470995726109            0.7465672512812668           -1.4723384203364156
C               -0.7777520612680047           -0.7475388424521853           -1.4787744633547011
C                0.5796239522999518            1.4280846051819096           -0.0994289839340816
C               -0.8068283850596901            0.7512634631249259           -1.4759457987331113
C               -0.6931827480276382            1.4517908345091675           -0.1109748182068271
C                0.6510216343205004           -1.4659975167272115           -0.1390885294873086
C               -0.6333894629548743           -1.4554167596362242           -0.1038189116150061
C               -1.6662214955439230           -1.9710761237162002            0.8879221166982643
H               -2.6183589904915396           -2.6233531170130471            0.0678346616859937
H               -1.1857583434552219           -2.6482894295936417            1.6013827832383096
H               -2.3393384578333554           -1.0201692730870138            1.4991365581357625
C               -1.7152490312642106            2.0585263724010323            0.8530312656848343
H               -2.1748912060852157            3.1509247787891175            0.5596546829301416
H               -2.5731038319542057            1.2101220581808023            0.8866651297822062
H               -1.1967894823679328            2.0327405534005951            1.9764457407300908
C                1.6690099547157717           -2.1134184639979043            0.8446846046841120
H                1.0602307101075208           -2.2250814674732693            1.8184788290568519
H                2.0421676224856928           -3.1310128244788022            0.3212382557588346
H                2.5468533756704801           -1.3743207976620455            0.8930824084153119
C                1.6573069338335522            1.9561068291644201            0.8790880768736344
H                1.2213216149774737            2.5165246293340728            1.7270128884029838
H                2.4401787487496489            1.1024717255320713            1.1384299665235826
H                2.5208417507951273            2.7333508215100846            0.4138588878849661
C                1.6025133411967227           -1.4509415058752357           -2.5859704733731301
H                2.8755136180961682           -1.1425090454444651           -2.6037512748555667
H                1.3289231401261135           -2.7301574063988916           -2.3555718046202117
H                1.2074143788251228           -1.2479942947650267           -3.6691487435838073
C               -1.5966873007554461           -1.5516782319519402           -2.5566050938016547
H               -1.1215886852143322           -1.2041561847202396           -3.5848997291020175
H               -1.5078344381262392           -2.7482031536188543           -2.3289921141074799
H               -2.6482933036831393           -1.1143715014388915           -2.4380601699837818
C               -1.4955048822164883            1.5498585777790166           -2.6537434865696476
H               -1.3410365912824442            1.1664333263186260           -3.5940900147106083
H               -2.6279591509642390            1.6035972692029794           -2.3068412938457530
H               -1.0836148966639902            2.5677592261720203           -2.6783193075504732
C                1.5890575287149302            1.5759423253040190           -2.4796406669876943
H                2.7589555739692355            1.6180170422039835           -2.3367937072353966
H                1.5609428096469871            0.9294640261887415           -3.5756216121388325
H                1.2399499400024876            2.6604980438823835           -2.4203448214148002
