40

C                0.7469220900099970           -0.7529885933383547           -1.5081539255354210
C                0.7424172529856049            0.7042701370123224           -1.4990180757611262
C               -0.8062383116463816           -0.7957768053603401           -1.4750096994967332
C                0.6571403140600938            1.3874393362917743           -0.1537264019900788
C               -0.9185400215892469            0.7916577027689553           -1.4194156269001328
C               -0.6660212225544642            1.4404840974656952           -0.1035410945145160
C                0.6230585820490518           -1.5242790813712113           -0.1470890329881450
C               -0.6591865759284886           -1.4636430325033893           -0.1556924079883248
C               -1.7280291463707516           -1.9290406909985434            0.8869724983638636
F               -2.7459417469982337           -0.9998266781693224            1.0423894566526006
F               -2.2136090319051140           -3.1874235283079333            0.4194943995456538
F               -1.0545938199902254           -2.0701567207325247            2.1099816699868499
C               -1.5945329584931125            1.8957218139333791            0.9847834908565767
F               -1.3827825762207469            3.2899465895152438            1.2591570139931696
F               -2.9272251135445386            1.7614498670590464            0.3889886142569306
F               -1.4183939141495030            1.2159460708391492            2.1485665608705684
C                1.6519859500338880            1.9143880962209501            0.7766828992320881
F                2.0540436219490958            3.3190698723417094            0.3539897745714870
F                1.2779607626992737            1.8922390389790531            2.1568266507590659
F                2.8940648688858364            1.1344646797327920            0.5779285676412030
C                1.6727199068296958           -1.9290827159405408            0.8270754086826353
F                1.5784600510215685           -1.2503484850232136            2.0214695949724604
F                1.4785124008151174           -3.3474041222088182            1.0900874787328951
F                2.9972504425553952           -1.7133316107163645            0.2994176294940348
C               -1.7498627582247559            1.5669718187396517           -2.4307348089115708
F               -1.7471220893505857            2.9954859218882439           -1.9259789837831653
F               -1.2759716469170539            1.5746511532432730           -3.6905761424449723
F               -3.0334329967629530            1.0963703996535084           -2.3760391565999508
C               -1.7573866332063948           -1.5895340178093524           -2.3739424429841125
F               -1.8463710575864865           -1.0339668233311421           -3.6417737761342281
F               -1.1979579866383776           -2.9307790759327355           -2.4951000568383948
F               -2.9652414192263907           -1.6622116822105675           -1.8975843659063227
C                1.5962075446451496           -1.5282449354298280           -2.5629166378353481
F                2.8819068495188147           -0.9750442320930424           -2.6311800915221690
F                1.7570893174395625           -2.9281275838152450           -2.1791648248439492
F                0.9835157507899170           -1.5683517480134508           -3.8527810551198147
C                1.5641661117478918            1.5520240041979505           -2.5626309529811122
F                1.1014708312550259            2.9631690692695432           -2.4908661828738596
F                2.9558889403858069            1.5748084650433651           -2.1408493636753438
F                1.4146017923955232            1.0422957300238513           -3.8155894121289675
